gem5 Simulator System.  http://gem5.org
gem5 is copyrighted software; use the --copyright option for details.

gem5 compiled Jun  5 2018 14:49:04
gem5 started Jun 12 2018 14:17:52
gem5 executing on chipdemo, pid 13906
command line: /home/hrniels/m3bench/m3/hw/gem5/build/X86/gem5.opt --outdir=gem5-2 --debug-file=gem5.log --listener-mode=on /home/hrniels/m3bench/m3/hw/gem5/configs/example/linux_fs.py --cpu-type TimingSimpleCPU --cpu-clock=1GHz --sys-clock=333MHz --caches --l2cache -n 2 '--command-line=ttyS0 console=ttyS0 lpj=7999923 root=/dev/sda1' --restore-with-cpu TimingSimpleCPU --checkpoint-restore=1

Global frequency set at 1000000000000 ticks per second
**** REAL SIMULATION ****
