
---------- Begin Simulation Statistics ----------
sim_seconds                                  2.763146                       # Number of seconds simulated
sim_ticks                                2763145706000                       # Number of ticks simulated
final_tick                               11640709339000                       # Number of ticks from beginning of simulation (restored from checkpoints and never reset)
sim_freq                                 1000000000000                       # Frequency of simulated ticks
host_inst_rate                                 110236                       # Simulator instruction rate (inst/s)
host_op_rate                                   230557                       # Simulator op (including micro ops) rate (op/s)
host_tick_rate                            46590653578                       # Simulator tick rate (ticks/s)
host_mem_usage                                 966396                       # Number of bytes of host memory used
host_seconds                                    59.31                       # Real time elapsed on the host
sim_insts                                     6537735                       # Number of instructions simulated
sim_ops                                      13673586                       # Number of ops (including micro ops) simulated
system.voltage_domain.voltage                       1                       # Voltage in Volts
system.clk_domain.clock                          3003                       # Clock period in ticks
system.mem_ctrls.pwrStateResidencyTicks::UNDEFINED 11640709339000                       # Cumulative time (in ticks) in various power states
system.mem_ctrls.bytes_read::cpu0.dtb.walker        10368                       # Number of bytes read from this memory
system.mem_ctrls.bytes_read::cpu0.itb.walker         2368                       # Number of bytes read from this memory
system.mem_ctrls.bytes_read::cpu0.inst         435648                       # Number of bytes read from this memory
system.mem_ctrls.bytes_read::cpu0.data         328704                       # Number of bytes read from this memory
system.mem_ctrls.bytes_read::cpu1.dtb.walker        11776                       # Number of bytes read from this memory
system.mem_ctrls.bytes_read::cpu1.itb.walker         3648                       # Number of bytes read from this memory
system.mem_ctrls.bytes_read::cpu1.inst         546880                       # Number of bytes read from this memory
system.mem_ctrls.bytes_read::cpu1.data         362944                       # Number of bytes read from this memory
system.mem_ctrls.bytes_read::l2.prefetcher       492608                       # Number of bytes read from this memory
system.mem_ctrls.bytes_read::total            2194944                       # Number of bytes read from this memory
system.mem_ctrls.bytes_inst_read::cpu0.inst       435648                       # Number of instructions bytes read from this memory
system.mem_ctrls.bytes_inst_read::cpu1.inst       546880                       # Number of instructions bytes read from this memory
system.mem_ctrls.bytes_inst_read::total        982528                       # Number of instructions bytes read from this memory
system.mem_ctrls.bytes_written::writebacks       471232                       # Number of bytes written to this memory
system.mem_ctrls.bytes_written::total          471232                       # Number of bytes written to this memory
system.mem_ctrls.num_reads::cpu0.dtb.walker          162                       # Number of read requests responded to by this memory
system.mem_ctrls.num_reads::cpu0.itb.walker           37                       # Number of read requests responded to by this memory
system.mem_ctrls.num_reads::cpu0.inst            6807                       # Number of read requests responded to by this memory
system.mem_ctrls.num_reads::cpu0.data            5136                       # Number of read requests responded to by this memory
system.mem_ctrls.num_reads::cpu1.dtb.walker          184                       # Number of read requests responded to by this memory
system.mem_ctrls.num_reads::cpu1.itb.walker           57                       # Number of read requests responded to by this memory
system.mem_ctrls.num_reads::cpu1.inst            8545                       # Number of read requests responded to by this memory
system.mem_ctrls.num_reads::cpu1.data            5671                       # Number of read requests responded to by this memory
system.mem_ctrls.num_reads::l2.prefetcher         7697                       # Number of read requests responded to by this memory
system.mem_ctrls.num_reads::total               34296                       # Number of read requests responded to by this memory
system.mem_ctrls.num_writes::writebacks          7363                       # Number of write requests responded to by this memory
system.mem_ctrls.num_writes::total               7363                       # Number of write requests responded to by this memory
system.mem_ctrls.bw_read::cpu0.dtb.walker         3752                       # Total read bandwidth from this memory (bytes/s)
system.mem_ctrls.bw_read::cpu0.itb.walker          857                       # Total read bandwidth from this memory (bytes/s)
system.mem_ctrls.bw_read::cpu0.inst            157664                       # Total read bandwidth from this memory (bytes/s)
system.mem_ctrls.bw_read::cpu0.data            118960                       # Total read bandwidth from this memory (bytes/s)
system.mem_ctrls.bw_read::cpu1.dtb.walker         4262                       # Total read bandwidth from this memory (bytes/s)
system.mem_ctrls.bw_read::cpu1.itb.walker         1320                       # Total read bandwidth from this memory (bytes/s)
system.mem_ctrls.bw_read::cpu1.inst            197919                       # Total read bandwidth from this memory (bytes/s)
system.mem_ctrls.bw_read::cpu1.data            131352                       # Total read bandwidth from this memory (bytes/s)
system.mem_ctrls.bw_read::l2.prefetcher        178278                       # Total read bandwidth from this memory (bytes/s)
system.mem_ctrls.bw_read::total                794364                       # Total read bandwidth from this memory (bytes/s)
system.mem_ctrls.bw_inst_read::cpu0.inst       157664                       # Instruction read bandwidth from this memory (bytes/s)
system.mem_ctrls.bw_inst_read::cpu1.inst       197919                       # Instruction read bandwidth from this memory (bytes/s)
system.mem_ctrls.bw_inst_read::total           355583                       # Instruction read bandwidth from this memory (bytes/s)
system.mem_ctrls.bw_write::writebacks          170542                       # Write bandwidth from this memory (bytes/s)
system.mem_ctrls.bw_write::total               170542                       # Write bandwidth from this memory (bytes/s)
system.mem_ctrls.bw_total::writebacks          170542                       # Total bandwidth to/from this memory (bytes/s)
system.mem_ctrls.bw_total::cpu0.dtb.walker         3752                       # Total bandwidth to/from this memory (bytes/s)
system.mem_ctrls.bw_total::cpu0.itb.walker          857                       # Total bandwidth to/from this memory (bytes/s)
system.mem_ctrls.bw_total::cpu0.inst           157664                       # Total bandwidth to/from this memory (bytes/s)
system.mem_ctrls.bw_total::cpu0.data           118960                       # Total bandwidth to/from this memory (bytes/s)
system.mem_ctrls.bw_total::cpu1.dtb.walker         4262                       # Total bandwidth to/from this memory (bytes/s)
system.mem_ctrls.bw_total::cpu1.itb.walker         1320                       # Total bandwidth to/from this memory (bytes/s)
system.mem_ctrls.bw_total::cpu1.inst           197919                       # Total bandwidth to/from this memory (bytes/s)
system.mem_ctrls.bw_total::cpu1.data           131352                       # Total bandwidth to/from this memory (bytes/s)
system.mem_ctrls.bw_total::l2.prefetcher       178278                       # Total bandwidth to/from this memory (bytes/s)
system.mem_ctrls.bw_total::total               964906                       # Total bandwidth to/from this memory (bytes/s)
system.mem_ctrls.readReqs                       34296                       # Number of read requests accepted
system.mem_ctrls.writeReqs                       7363                       # Number of write requests accepted
system.mem_ctrls.readBursts                     34296                       # Number of DRAM read bursts, including those serviced by the write queue
system.mem_ctrls.writeBursts                     7363                       # Number of DRAM write bursts, including those merged in the write queue
system.mem_ctrls.bytesReadDRAM                2191616                       # Total number of bytes read from DRAM
system.mem_ctrls.bytesReadWrQ                    3328                       # Total number of bytes read from write queue
system.mem_ctrls.bytesWritten                  469312                       # Total number of bytes written to DRAM
system.mem_ctrls.bytesReadSys                 2194944                       # Total read bytes from the system interface side
system.mem_ctrls.bytesWrittenSys               471232                       # Total written bytes from the system interface side
system.mem_ctrls.servicedByWrQ                     52                       # Number of DRAM read bursts serviced by the write queue
system.mem_ctrls.mergedWrBursts                     0                       # Number of DRAM write bursts merged with an existing one
system.mem_ctrls.neitherReadNorWriteReqs            0                       # Number of requests that are neither read nor write
system.mem_ctrls.perBankRdBursts::0              2106                       # Per bank write bursts
system.mem_ctrls.perBankRdBursts::1              2501                       # Per bank write bursts
system.mem_ctrls.perBankRdBursts::2              2522                       # Per bank write bursts
system.mem_ctrls.perBankRdBursts::3              2263                       # Per bank write bursts
system.mem_ctrls.perBankRdBursts::4              2586                       # Per bank write bursts
system.mem_ctrls.perBankRdBursts::5              1826                       # Per bank write bursts
system.mem_ctrls.perBankRdBursts::6              1890                       # Per bank write bursts
system.mem_ctrls.perBankRdBursts::7              2277                       # Per bank write bursts
system.mem_ctrls.perBankRdBursts::8              2731                       # Per bank write bursts
system.mem_ctrls.perBankRdBursts::9              2701                       # Per bank write bursts
system.mem_ctrls.perBankRdBursts::10             2592                       # Per bank write bursts
system.mem_ctrls.perBankRdBursts::11             2305                       # Per bank write bursts
system.mem_ctrls.perBankRdBursts::12             1327                       # Per bank write bursts
system.mem_ctrls.perBankRdBursts::13             1548                       # Per bank write bursts
system.mem_ctrls.perBankRdBursts::14             1379                       # Per bank write bursts
system.mem_ctrls.perBankRdBursts::15             1690                       # Per bank write bursts
system.mem_ctrls.perBankWrBursts::0               405                       # Per bank write bursts
system.mem_ctrls.perBankWrBursts::1               540                       # Per bank write bursts
system.mem_ctrls.perBankWrBursts::2               607                       # Per bank write bursts
system.mem_ctrls.perBankWrBursts::3               563                       # Per bank write bursts
system.mem_ctrls.perBankWrBursts::4               732                       # Per bank write bursts
system.mem_ctrls.perBankWrBursts::5               298                       # Per bank write bursts
system.mem_ctrls.perBankWrBursts::6               433                       # Per bank write bursts
system.mem_ctrls.perBankWrBursts::7               621                       # Per bank write bursts
system.mem_ctrls.perBankWrBursts::8               509                       # Per bank write bursts
system.mem_ctrls.perBankWrBursts::9               651                       # Per bank write bursts
system.mem_ctrls.perBankWrBursts::10              404                       # Per bank write bursts
system.mem_ctrls.perBankWrBursts::11              228                       # Per bank write bursts
system.mem_ctrls.perBankWrBursts::12              152                       # Per bank write bursts
system.mem_ctrls.perBankWrBursts::13              353                       # Per bank write bursts
system.mem_ctrls.perBankWrBursts::14              472                       # Per bank write bursts
system.mem_ctrls.perBankWrBursts::15              365                       # Per bank write bursts
system.mem_ctrls.numRdRetry                         0                       # Number of times read queue was full causing retry
system.mem_ctrls.numWrRetry                         0                       # Number of times write queue was full causing retry
system.mem_ctrls.totGap                  2757031968000                       # Total gap between requests
system.mem_ctrls.readPktSize::0                     0                       # Read request sizes (log2)
system.mem_ctrls.readPktSize::1                     0                       # Read request sizes (log2)
system.mem_ctrls.readPktSize::2                     0                       # Read request sizes (log2)
system.mem_ctrls.readPktSize::3                     0                       # Read request sizes (log2)
system.mem_ctrls.readPktSize::4                     0                       # Read request sizes (log2)
system.mem_ctrls.readPktSize::5                     0                       # Read request sizes (log2)
system.mem_ctrls.readPktSize::6                 34296                       # Read request sizes (log2)
system.mem_ctrls.writePktSize::0                    0                       # Write request sizes (log2)
system.mem_ctrls.writePktSize::1                    0                       # Write request sizes (log2)
system.mem_ctrls.writePktSize::2                    0                       # Write request sizes (log2)
system.mem_ctrls.writePktSize::3                    0                       # Write request sizes (log2)
system.mem_ctrls.writePktSize::4                    0                       # Write request sizes (log2)
system.mem_ctrls.writePktSize::5                    0                       # Write request sizes (log2)
system.mem_ctrls.writePktSize::6                 7363                       # Write request sizes (log2)
system.mem_ctrls.rdQLenPdf::0                   22593                       # What read queue length does an incoming req see
system.mem_ctrls.rdQLenPdf::1                    6405                       # What read queue length does an incoming req see
system.mem_ctrls.rdQLenPdf::2                    1577                       # What read queue length does an incoming req see
system.mem_ctrls.rdQLenPdf::3                     610                       # What read queue length does an incoming req see
system.mem_ctrls.rdQLenPdf::4                     436                       # What read queue length does an incoming req see
system.mem_ctrls.rdQLenPdf::5                     374                       # What read queue length does an incoming req see
system.mem_ctrls.rdQLenPdf::6                     346                       # What read queue length does an incoming req see
system.mem_ctrls.rdQLenPdf::7                     379                       # What read queue length does an incoming req see
system.mem_ctrls.rdQLenPdf::8                     479                       # What read queue length does an incoming req see
system.mem_ctrls.rdQLenPdf::9                     385                       # What read queue length does an incoming req see
system.mem_ctrls.rdQLenPdf::10                    351                       # What read queue length does an incoming req see
system.mem_ctrls.rdQLenPdf::11                    125                       # What read queue length does an incoming req see
system.mem_ctrls.rdQLenPdf::12                     58                       # What read queue length does an incoming req see
system.mem_ctrls.rdQLenPdf::13                     58                       # What read queue length does an incoming req see
system.mem_ctrls.rdQLenPdf::14                     26                       # What read queue length does an incoming req see
system.mem_ctrls.rdQLenPdf::15                     20                       # What read queue length does an incoming req see
system.mem_ctrls.rdQLenPdf::16                     16                       # What read queue length does an incoming req see
system.mem_ctrls.rdQLenPdf::17                      5                       # What read queue length does an incoming req see
system.mem_ctrls.rdQLenPdf::18                      1                       # What read queue length does an incoming req see
system.mem_ctrls.rdQLenPdf::19                      0                       # What read queue length does an incoming req see
system.mem_ctrls.rdQLenPdf::20                      0                       # What read queue length does an incoming req see
system.mem_ctrls.rdQLenPdf::21                      0                       # What read queue length does an incoming req see
system.mem_ctrls.rdQLenPdf::22                      0                       # What read queue length does an incoming req see
system.mem_ctrls.rdQLenPdf::23                      0                       # What read queue length does an incoming req see
system.mem_ctrls.rdQLenPdf::24                      0                       # What read queue length does an incoming req see
system.mem_ctrls.rdQLenPdf::25                      0                       # What read queue length does an incoming req see
system.mem_ctrls.rdQLenPdf::26                      0                       # What read queue length does an incoming req see
system.mem_ctrls.rdQLenPdf::27                      0                       # What read queue length does an incoming req see
system.mem_ctrls.rdQLenPdf::28                      0                       # What read queue length does an incoming req see
system.mem_ctrls.rdQLenPdf::29                      0                       # What read queue length does an incoming req see
system.mem_ctrls.rdQLenPdf::30                      0                       # What read queue length does an incoming req see
system.mem_ctrls.rdQLenPdf::31                      0                       # What read queue length does an incoming req see
system.mem_ctrls.wrQLenPdf::0                       1                       # What write queue length does an incoming req see
system.mem_ctrls.wrQLenPdf::1                       1                       # What write queue length does an incoming req see
system.mem_ctrls.wrQLenPdf::2                       1                       # What write queue length does an incoming req see
system.mem_ctrls.wrQLenPdf::3                       1                       # What write queue length does an incoming req see
system.mem_ctrls.wrQLenPdf::4                       1                       # What write queue length does an incoming req see
system.mem_ctrls.wrQLenPdf::5                       1                       # What write queue length does an incoming req see
system.mem_ctrls.wrQLenPdf::6                       1                       # What write queue length does an incoming req see
system.mem_ctrls.wrQLenPdf::7                       1                       # What write queue length does an incoming req see
system.mem_ctrls.wrQLenPdf::8                       1                       # What write queue length does an incoming req see
system.mem_ctrls.wrQLenPdf::9                       1                       # What write queue length does an incoming req see
system.mem_ctrls.wrQLenPdf::10                      1                       # What write queue length does an incoming req see
system.mem_ctrls.wrQLenPdf::11                      1                       # What write queue length does an incoming req see
system.mem_ctrls.wrQLenPdf::12                      1                       # What write queue length does an incoming req see
system.mem_ctrls.wrQLenPdf::13                      1                       # What write queue length does an incoming req see
system.mem_ctrls.wrQLenPdf::14                      1                       # What write queue length does an incoming req see
system.mem_ctrls.wrQLenPdf::15                    149                       # What write queue length does an incoming req see
system.mem_ctrls.wrQLenPdf::16                    167                       # What write queue length does an incoming req see
system.mem_ctrls.wrQLenPdf::17                    381                       # What write queue length does an incoming req see
system.mem_ctrls.wrQLenPdf::18                    421                       # What write queue length does an incoming req see
system.mem_ctrls.wrQLenPdf::19                    442                       # What write queue length does an incoming req see
system.mem_ctrls.wrQLenPdf::20                    444                       # What write queue length does an incoming req see
system.mem_ctrls.wrQLenPdf::21                    447                       # What write queue length does an incoming req see
system.mem_ctrls.wrQLenPdf::22                    446                       # What write queue length does an incoming req see
system.mem_ctrls.wrQLenPdf::23                    448                       # What write queue length does an incoming req see
system.mem_ctrls.wrQLenPdf::24                    446                       # What write queue length does an incoming req see
system.mem_ctrls.wrQLenPdf::25                    453                       # What write queue length does an incoming req see
system.mem_ctrls.wrQLenPdf::26                    447                       # What write queue length does an incoming req see
system.mem_ctrls.wrQLenPdf::27                    455                       # What write queue length does an incoming req see
system.mem_ctrls.wrQLenPdf::28                    459                       # What write queue length does an incoming req see
system.mem_ctrls.wrQLenPdf::29                    436                       # What write queue length does an incoming req see
system.mem_ctrls.wrQLenPdf::30                    436                       # What write queue length does an incoming req see
system.mem_ctrls.wrQLenPdf::31                    435                       # What write queue length does an incoming req see
system.mem_ctrls.wrQLenPdf::32                    434                       # What write queue length does an incoming req see
system.mem_ctrls.wrQLenPdf::33                      1                       # What write queue length does an incoming req see
system.mem_ctrls.wrQLenPdf::34                      1                       # What write queue length does an incoming req see
system.mem_ctrls.wrQLenPdf::35                      0                       # What write queue length does an incoming req see
system.mem_ctrls.wrQLenPdf::36                      0                       # What write queue length does an incoming req see
system.mem_ctrls.wrQLenPdf::37                      0                       # What write queue length does an incoming req see
system.mem_ctrls.wrQLenPdf::38                      0                       # What write queue length does an incoming req see
system.mem_ctrls.wrQLenPdf::39                      0                       # What write queue length does an incoming req see
system.mem_ctrls.wrQLenPdf::40                      0                       # What write queue length does an incoming req see
system.mem_ctrls.wrQLenPdf::41                      0                       # What write queue length does an incoming req see
system.mem_ctrls.wrQLenPdf::42                      0                       # What write queue length does an incoming req see
system.mem_ctrls.wrQLenPdf::43                      0                       # What write queue length does an incoming req see
system.mem_ctrls.wrQLenPdf::44                      0                       # What write queue length does an incoming req see
system.mem_ctrls.wrQLenPdf::45                      0                       # What write queue length does an incoming req see
system.mem_ctrls.wrQLenPdf::46                      0                       # What write queue length does an incoming req see
system.mem_ctrls.wrQLenPdf::47                      0                       # What write queue length does an incoming req see
system.mem_ctrls.wrQLenPdf::48                      0                       # What write queue length does an incoming req see
system.mem_ctrls.wrQLenPdf::49                      0                       # What write queue length does an incoming req see
system.mem_ctrls.wrQLenPdf::50                      0                       # What write queue length does an incoming req see
system.mem_ctrls.wrQLenPdf::51                      0                       # What write queue length does an incoming req see
system.mem_ctrls.wrQLenPdf::52                      0                       # What write queue length does an incoming req see
system.mem_ctrls.wrQLenPdf::53                      0                       # What write queue length does an incoming req see
system.mem_ctrls.wrQLenPdf::54                      0                       # What write queue length does an incoming req see
system.mem_ctrls.wrQLenPdf::55                      0                       # What write queue length does an incoming req see
system.mem_ctrls.wrQLenPdf::56                      0                       # What write queue length does an incoming req see
system.mem_ctrls.wrQLenPdf::57                      0                       # What write queue length does an incoming req see
system.mem_ctrls.wrQLenPdf::58                      0                       # What write queue length does an incoming req see
system.mem_ctrls.wrQLenPdf::59                      0                       # What write queue length does an incoming req see
system.mem_ctrls.wrQLenPdf::60                      0                       # What write queue length does an incoming req see
system.mem_ctrls.wrQLenPdf::61                      0                       # What write queue length does an incoming req see
system.mem_ctrls.wrQLenPdf::62                      0                       # What write queue length does an incoming req see
system.mem_ctrls.wrQLenPdf::63                      0                       # What write queue length does an incoming req see
system.mem_ctrls.bytesPerActivate::samples        14773                       # Bytes accessed per row activation
system.mem_ctrls.bytesPerActivate::mean    180.121032                       # Bytes accessed per row activation
system.mem_ctrls.bytesPerActivate::gmean   118.555513                       # Bytes accessed per row activation
system.mem_ctrls.bytesPerActivate::stdev   220.224929                       # Bytes accessed per row activation
system.mem_ctrls.bytesPerActivate::0-127         7920     53.61%     53.61% # Bytes accessed per row activation
system.mem_ctrls.bytesPerActivate::128-255         3848     26.05%     79.66% # Bytes accessed per row activation
system.mem_ctrls.bytesPerActivate::256-383         1220      8.26%     87.92% # Bytes accessed per row activation
system.mem_ctrls.bytesPerActivate::384-511          577      3.91%     91.82% # Bytes accessed per row activation
system.mem_ctrls.bytesPerActivate::512-639          297      2.01%     93.83% # Bytes accessed per row activation
system.mem_ctrls.bytesPerActivate::640-767          172      1.16%     95.00% # Bytes accessed per row activation
system.mem_ctrls.bytesPerActivate::768-895          109      0.74%     95.74% # Bytes accessed per row activation
system.mem_ctrls.bytesPerActivate::896-1023           82      0.56%     96.29% # Bytes accessed per row activation
system.mem_ctrls.bytesPerActivate::1024-1151          548      3.71%    100.00% # Bytes accessed per row activation
system.mem_ctrls.bytesPerActivate::total        14773                       # Bytes accessed per row activation
system.mem_ctrls.rdPerTurnAround::samples          434                       # Reads before turning the bus around for writes
system.mem_ctrls.rdPerTurnAround::mean      78.804147                       # Reads before turning the bus around for writes
system.mem_ctrls.rdPerTurnAround::gmean     54.966547                       # Reads before turning the bus around for writes
system.mem_ctrls.rdPerTurnAround::stdev    350.033830                       # Reads before turning the bus around for writes
system.mem_ctrls.rdPerTurnAround::0-255           431     99.31%     99.31% # Reads before turning the bus around for writes
system.mem_ctrls.rdPerTurnAround::256-511            2      0.46%     99.77% # Reads before turning the bus around for writes
system.mem_ctrls.rdPerTurnAround::7168-7423            1      0.23%    100.00% # Reads before turning the bus around for writes
system.mem_ctrls.rdPerTurnAround::total           434                       # Reads before turning the bus around for writes
system.mem_ctrls.wrPerTurnAround::samples          434                       # Writes before turning the bus around for reads
system.mem_ctrls.wrPerTurnAround::mean      16.896313                       # Writes before turning the bus around for reads
system.mem_ctrls.wrPerTurnAround::gmean     16.847255                       # Writes before turning the bus around for reads
system.mem_ctrls.wrPerTurnAround::stdev      1.347596                       # Writes before turning the bus around for reads
system.mem_ctrls.wrPerTurnAround::16              268     61.75%     61.75% # Writes before turning the bus around for reads
system.mem_ctrls.wrPerTurnAround::17               11      2.53%     64.29% # Writes before turning the bus around for reads
system.mem_ctrls.wrPerTurnAround::18              122     28.11%     92.40% # Writes before turning the bus around for reads
system.mem_ctrls.wrPerTurnAround::19               20      4.61%     97.00% # Writes before turning the bus around for reads
system.mem_ctrls.wrPerTurnAround::20                5      1.15%     98.16% # Writes before turning the bus around for reads
system.mem_ctrls.wrPerTurnAround::21                1      0.23%     98.39% # Writes before turning the bus around for reads
system.mem_ctrls.wrPerTurnAround::22                3      0.69%     99.08% # Writes before turning the bus around for reads
system.mem_ctrls.wrPerTurnAround::23                2      0.46%     99.54% # Writes before turning the bus around for reads
system.mem_ctrls.wrPerTurnAround::24                1      0.23%     99.77% # Writes before turning the bus around for reads
system.mem_ctrls.wrPerTurnAround::25                1      0.23%    100.00% # Writes before turning the bus around for reads
system.mem_ctrls.wrPerTurnAround::total           434                       # Writes before turning the bus around for reads
system.mem_ctrls.totQLat                    985395632                       # Total ticks spent queuing
system.mem_ctrls.totMemAccLat              1627470632                       # Total ticks spent from burst creation until serviced by the DRAM
system.mem_ctrls.totBusLat                  171220000                       # Total ticks spent in databus transfers
system.mem_ctrls.avgQLat                     28775.72                       # Average queueing delay per DRAM burst
system.mem_ctrls.avgBusLat                    5000.00                       # Average bus latency per DRAM burst
system.mem_ctrls.avgMemAccLat                47525.72                       # Average memory access latency per DRAM burst
system.mem_ctrls.avgRdBW                         0.79                       # Average DRAM read bandwidth in MiByte/s
system.mem_ctrls.avgWrBW                         0.17                       # Average achieved write bandwidth in MiByte/s
system.mem_ctrls.avgRdBWSys                      0.79                       # Average system read bandwidth in MiByte/s
system.mem_ctrls.avgWrBWSys                      0.17                       # Average system write bandwidth in MiByte/s
system.mem_ctrls.peakBW                      12800.00                       # Theoretical peak bandwidth in MiByte/s
system.mem_ctrls.busUtil                         0.01                       # Data bus utilization in percentage
system.mem_ctrls.busUtilRead                     0.01                       # Data bus utilization in percentage for reads
system.mem_ctrls.busUtilWrite                    0.00                       # Data bus utilization in percentage for writes
system.mem_ctrls.avgRdQLen                       1.45                       # Average read queue length when enqueuing
system.mem_ctrls.avgWrQLen                      23.38                       # Average write queue length when enqueuing
system.mem_ctrls.readRowHits                    23038                       # Number of row buffer hits during reads
system.mem_ctrls.writeRowHits                    3766                       # Number of row buffer hits during writes
system.mem_ctrls.readRowHitRate                 67.28                       # Row buffer hit rate for reads
system.mem_ctrls.writeRowHitRate                51.15                       # Row buffer hit rate for writes
system.mem_ctrls.avgGap                   66180944.53                       # Average gap between requests
system.mem_ctrls.pageHitRate                    64.42                       # Row buffer hit rate, read and write combined
system.mem_ctrls_0.actEnergy                 56220360                       # Energy for activate commands per rank (pJ)
system.mem_ctrls_0.preEnergy                 29881830                       # Energy for precharge commands per rank (pJ)
system.mem_ctrls_0.readEnergy               128312940                       # Energy for read commands per rank (pJ)
system.mem_ctrls_0.writeEnergy               21918780                       # Energy for write commands per rank (pJ)
system.mem_ctrls_0.refreshEnergy         857422800.000000                       # Energy for refresh commands per rank (pJ)
system.mem_ctrls_0.actBackEnergy            552636090                       # Energy for active background per rank (pJ)
system.mem_ctrls_0.preBackEnergy             41298240                       # Energy for precharge background per rank (pJ)
system.mem_ctrls_0.actPowerDownEnergy      2344787340                       # Energy for active power-down per rank (pJ)
system.mem_ctrls_0.prePowerDownEnergy       974079360                       # Energy for precharge power-down per rank (pJ)
system.mem_ctrls_0.selfRefreshEnergy     661137412095                       # Energy for self refresh per rank (pJ)
system.mem_ctrls_0.totalEnergy           666144233055                       # Total energy per rank (pJ)
system.mem_ctrls_0.averagePower            241.081833                       # Core power per rank (mW)
system.mem_ctrls_0.totalIdleTime         2739730106471                       # Total Idle time Per DRAM Rank
system.mem_ctrls_0.memoryStateTime::IDLE     73520000                       # Time in different power states
system.mem_ctrls_0.memoryStateTime::REF     364266000                       # Time in different power states
system.mem_ctrls_0.memoryStateTime::SREF 2754146935500                       # Time in different power states
system.mem_ctrls_0.memoryStateTime::PRE_PDN   2536758873                       # Time in different power states
system.mem_ctrls_0.memoryStateTime::ACT     882147029                       # Time in different power states
system.mem_ctrls_0.memoryStateTime::ACT_PDN   5142078598                       # Time in different power states
system.mem_ctrls_1.actEnergy                 49258860                       # Energy for activate commands per rank (pJ)
system.mem_ctrls_1.preEnergy                 26181705                       # Energy for precharge commands per rank (pJ)
system.mem_ctrls_1.readEnergy               116189220                       # Energy for read commands per rank (pJ)
system.mem_ctrls_1.writeEnergy               16359480                       # Energy for write commands per rank (pJ)
system.mem_ctrls_1.refreshEnergy         732036240.000000                       # Energy for refresh commands per rank (pJ)
system.mem_ctrls_1.actBackEnergy            471938340                       # Energy for active background per rank (pJ)
system.mem_ctrls_1.preBackEnergy             31046880                       # Energy for precharge background per rank (pJ)
system.mem_ctrls_1.actPowerDownEnergy      2286736830                       # Energy for active power-down per rank (pJ)
system.mem_ctrls_1.prePowerDownEnergy       741943680                       # Energy for precharge power-down per rank (pJ)
system.mem_ctrls_1.selfRefreshEnergy     661312169385                       # Energy for self refresh per rank (pJ)
system.mem_ctrls_1.totalEnergy           665783938860                       # Total energy per rank (pJ)
system.mem_ctrls_1.averagePower            240.951441                       # Core power per rank (mW)
system.mem_ctrls_1.totalIdleTime         2755932035389                       # Total Idle time Per DRAM Rank
system.mem_ctrls_1.memoryStateTime::IDLE     49064000                       # Time in different power states
system.mem_ctrls_1.memoryStateTime::REF     310704000                       # Time in different power states
system.mem_ctrls_1.memoryStateTime::SREF 2755082808000                       # Time in different power states
system.mem_ctrls_1.memoryStateTime::PRE_PDN   1932140401                       # Time in different power states
system.mem_ctrls_1.memoryStateTime::ACT     756289111                       # Time in different power states
system.mem_ctrls_1.memoryStateTime::ACT_PDN   5014700488                       # Time in different power states
system.pwrStateResidencyTicks::UNDEFINED 11640709339000                       # Cumulative time (in ticks) in various power states
system.apicbridge.pwrStateResidencyTicks::UNDEFINED 11640709339000                       # Cumulative time (in ticks) in various power states
system.bridge.pwrStateResidencyTicks::UNDEFINED 11640709339000                       # Cumulative time (in ticks) in various power states
system.cpu0.branchPred.lookups                1497650                       # Number of BP lookups
system.cpu0.branchPred.condPredicted          1497650                       # Number of conditional branches predicted
system.cpu0.branchPred.condIncorrect           209755                       # Number of conditional branches incorrect
system.cpu0.branchPred.BTBLookups             1195061                       # Number of BTB lookups
system.cpu0.branchPred.BTBHits                      0                       # Number of BTB hits
system.cpu0.branchPred.BTBCorrect                   0                       # Number of correct BTB predictions (this stat may not work properly.
system.cpu0.branchPred.BTBHitPct             0.000000                       # BTB Hit Percentage
system.cpu0.branchPred.usedRAS                 152556                       # Number of times the RAS was used to get a target.
system.cpu0.branchPred.RASInCorrect             38803                       # Number of incorrect RAS predictions.
system.cpu0.branchPred.indirectLookups        1195061                       # Number of indirect predictor lookups.
system.cpu0.branchPred.indirectHits            477852                       # Number of indirect target hits.
system.cpu0.branchPred.indirectMisses          717209                       # Number of indirect misses.
system.cpu0.branchPredindirectMispredicted        95490                       # Number of mispredicted indirect branches.
system.cpu_voltage_domain.voltage                   1                       # Voltage in Volts
system.cpu_clk_domain.clock                      1000                       # Clock period in ticks
system.cpu0.dtb.walker.pwrStateResidencyTicks::UNDEFINED 11640709339000                       # Cumulative time (in ticks) in various power states
system.cpu0.apic_clk_domain.clock               16000                       # Clock period in ticks
system.cpu0.interrupts.pwrStateResidencyTicks::UNDEFINED 11640709339000                       # Cumulative time (in ticks) in various power states
system.cpu0.itb.walker.pwrStateResidencyTicks::UNDEFINED 11640709339000                       # Cumulative time (in ticks) in various power states
system.cpu0.numPwrStateTransitions               1414                       # Number of power state transitions
system.cpu0.pwrStateClkGateDist::samples          707                       # Distribution of time spent in the clock gated state
system.cpu0.pwrStateClkGateDist::mean    3896000239.021216                       # Distribution of time spent in the clock gated state
system.cpu0.pwrStateClkGateDist::stdev   594813837.769757                       # Distribution of time spent in the clock gated state
system.cpu0.pwrStateClkGateDist::1000-5e+10          707    100.00%    100.00% # Distribution of time spent in the clock gated state
system.cpu0.pwrStateClkGateDist::min_value      3056147                       # Distribution of time spent in the clock gated state
system.cpu0.pwrStateClkGateDist::max_value   3992960000                       # Distribution of time spent in the clock gated state
system.cpu0.pwrStateClkGateDist::total            707                       # Distribution of time spent in the clock gated state
system.cpu0.pwrStateResidencyTicks::ON     8673537012                       # Cumulative time (in ticks) in various power states
system.cpu0.pwrStateResidencyTicks::CLK_GATED 2754472168988                       # Cumulative time (in ticks) in various power states
system.cpu0.numCycles                         8632699                       # number of cpu cycles simulated
system.cpu0.numWorkItemsStarted                     0                       # number of work items this cpu started
system.cpu0.numWorkItemsCompleted                   0                       # number of work items this cpu completed
system.cpu0.fetch.icacheStallCycles           3754883                       # Number of cycles fetch is stalled on an Icache miss
system.cpu0.fetch.Insts                       6606942                       # Number of instructions fetch has processed
system.cpu0.fetch.Branches                    1497650                       # Number of branches that fetch encountered
system.cpu0.fetch.predictedBranches            630408                       # Number of branches that fetch has predicted taken
system.cpu0.fetch.Cycles                      4167777                       # Number of cycles fetch has run and was not squashing or blocked
system.cpu0.fetch.SquashCycles                 438934                       # Number of cycles fetch has spent squashing
system.cpu0.fetch.TlbCycles                      8397                       # Number of cycles fetch has spent waiting for tlb
system.cpu0.fetch.MiscStallCycles                7386                       # Number of cycles fetch has spent waiting on interrupts, or bad addresses, or out of MSHRs
system.cpu0.fetch.PendingTrapStallCycles        20939                       # Number of stall cycles due to pending traps
system.cpu0.fetch.PendingQuiesceStallCycles        22848                       # Number of stall cycles due to pending quiesce instructions
system.cpu0.fetch.IcacheWaitRetryStallCycles          126                       # Number of stall cycles due to full MSHR
system.cpu0.fetch.CacheLines                   975360                       # Number of cache lines fetched
system.cpu0.fetch.IcacheSquashes               101918                       # Number of outstanding Icache misses that were squashed
system.cpu0.fetch.ItlbSquashes                    235                       # Number of outstanding ITLB misses that were squashed
system.cpu0.fetch.rateDist::samples           8201823                       # Number of instructions fetched each cycle (Total)
system.cpu0.fetch.rateDist::mean             1.700958                       # Number of instructions fetched each cycle (Total)
system.cpu0.fetch.rateDist::stdev            3.026950                       # Number of instructions fetched each cycle (Total)
system.cpu0.fetch.rateDist::underflows              0      0.00%      0.00% # Number of instructions fetched each cycle (Total)
system.cpu0.fetch.rateDist::0                 5931716     72.32%     72.32% # Number of instructions fetched each cycle (Total)
system.cpu0.fetch.rateDist::1                  187626      2.29%     74.61% # Number of instructions fetched each cycle (Total)
system.cpu0.fetch.rateDist::2                  112623      1.37%     75.98% # Number of instructions fetched each cycle (Total)
system.cpu0.fetch.rateDist::3                  129374      1.58%     77.56% # Number of instructions fetched each cycle (Total)
system.cpu0.fetch.rateDist::4                  119518      1.46%     79.02% # Number of instructions fetched each cycle (Total)
system.cpu0.fetch.rateDist::5                  169869      2.07%     81.09% # Number of instructions fetched each cycle (Total)
system.cpu0.fetch.rateDist::6                  220175      2.68%     83.77% # Number of instructions fetched each cycle (Total)
system.cpu0.fetch.rateDist::7                  145883      1.78%     85.55% # Number of instructions fetched each cycle (Total)
system.cpu0.fetch.rateDist::8                 1185039     14.45%    100.00% # Number of instructions fetched each cycle (Total)
system.cpu0.fetch.rateDist::overflows               0      0.00%    100.00% # Number of instructions fetched each cycle (Total)
system.cpu0.fetch.rateDist::min_value               0                       # Number of instructions fetched each cycle (Total)
system.cpu0.fetch.rateDist::max_value               8                       # Number of instructions fetched each cycle (Total)
system.cpu0.fetch.rateDist::total             8201823                       # Number of instructions fetched each cycle (Total)
system.cpu0.fetch.branchRate                 0.173486                       # Number of branch fetches per cycle
system.cpu0.fetch.rate                       0.765339                       # Number of inst fetches per cycle
system.cpu0.decode.IdleCycles                 3148732                       # Number of cycles decode is idle
system.cpu0.decode.BlockedCycles              2882876                       # Number of cycles decode is blocked
system.cpu0.decode.RunCycles                  1828874                       # Number of cycles decode is running
system.cpu0.decode.UnblockCycles               121874                       # Number of cycles decode is unblocking
system.cpu0.decode.SquashCycles                219467                       # Number of cycles decode is squashing
system.cpu0.decode.DecodedInsts              12843375                       # Number of instructions handled by decode
system.cpu0.rename.SquashCycles                219467                       # Number of cycles rename is squashing
system.cpu0.rename.IdleCycles                 3294519                       # Number of cycles rename is idle
system.cpu0.rename.BlockCycles                1043968                       # Number of cycles rename is blocking
system.cpu0.rename.serializeStallCycles       1367458                       # count of cycles rename stalled for serializing inst
system.cpu0.rename.RunCycles                  1786684                       # Number of cycles rename is running
system.cpu0.rename.UnblockCycles               489727                       # Number of cycles rename is unblocking
system.cpu0.rename.RenamedInsts              12109742                       # Number of instructions processed by rename
system.cpu0.rename.ROBFullEvents                 1862                       # Number of times rename has blocked due to ROB full
system.cpu0.rename.IQFullEvents                262832                       # Number of times rename has blocked due to IQ full
system.cpu0.rename.LQFullEvents                  3210                       # Number of times rename has blocked due to LQ full
system.cpu0.rename.SQFullEvents                154720                       # Number of times rename has blocked due to SQ full
system.cpu0.rename.RenamedOperands           13266673                       # Number of destination operands rename has renamed
system.cpu0.rename.RenameLookups             31007032                       # Number of register rename lookups that rename has made
system.cpu0.rename.int_rename_lookups        18491412                       # Number of integer rename lookups
system.cpu0.rename.fp_rename_lookups              870                       # Number of floating rename lookups
system.cpu0.rename.CommittedMaps              7863866                       # Number of HB maps that are committed
system.cpu0.rename.UndoneMaps                 5402769                       # Number of HB maps that are undone due to squashing
system.cpu0.rename.serializingInsts             43953                       # count of serializing insts renamed
system.cpu0.rename.tempSerializingInsts         45059                       # count of temporary serializing insts renamed
system.cpu0.rename.skidInsts                  1025888                       # count of insts added to the skid buffer
system.cpu0.memDep0.insertedLoads             1586775                       # Number of loads inserted to the mem dependence unit.
system.cpu0.memDep0.insertedStores             820747                       # Number of stores inserted to the mem dependence unit.
system.cpu0.memDep0.conflictingLoads           274136                       # Number of conflicting loads.
system.cpu0.memDep0.conflictingStores          186653                       # Number of conflicting stores.
system.cpu0.iq.iqInstsAdded                  10670926                       # Number of instructions added to the IQ (excludes non-spec)
system.cpu0.iq.iqNonSpecInstsAdded             139011                       # Number of non-speculative instructions added to the IQ
system.cpu0.iq.iqInstsIssued                  9428508                       # Number of instructions issued
system.cpu0.iq.iqSquashedInstsIssued            28259                       # Number of squashed instructions issued
system.cpu0.iq.iqSquashedInstsExamined        3706966                       # Number of squashed instructions iterated over during squash; mainly for profiling
system.cpu0.iq.iqSquashedOperandsExamined      5856685                       # Number of squashed operands that are examined and possibly removed from graph
system.cpu0.iq.iqSquashedNonSpecRemoved         50643                       # Number of squashed non-spec instructions that were removed
system.cpu0.iq.issued_per_cycle::samples      8201823                       # Number of insts issued each cycle
system.cpu0.iq.issued_per_cycle::mean        1.149562                       # Number of insts issued each cycle
system.cpu0.iq.issued_per_cycle::stdev       1.809767                       # Number of insts issued each cycle
system.cpu0.iq.issued_per_cycle::underflows            0      0.00%      0.00% # Number of insts issued each cycle
system.cpu0.iq.issued_per_cycle::0            4815512     58.71%     58.71% # Number of insts issued each cycle
system.cpu0.iq.issued_per_cycle::1            1132927     13.81%     72.53% # Number of insts issued each cycle
system.cpu0.iq.issued_per_cycle::2             727632      8.87%     81.40% # Number of insts issued each cycle
system.cpu0.iq.issued_per_cycle::3             467401      5.70%     87.10% # Number of insts issued each cycle
system.cpu0.iq.issued_per_cycle::4             427681      5.21%     92.31% # Number of insts issued each cycle
system.cpu0.iq.issued_per_cycle::5             275559      3.36%     95.67% # Number of insts issued each cycle
system.cpu0.iq.issued_per_cycle::6             181049      2.21%     97.88% # Number of insts issued each cycle
system.cpu0.iq.issued_per_cycle::7             129195      1.58%     99.45% # Number of insts issued each cycle
system.cpu0.iq.issued_per_cycle::8              44867      0.55%    100.00% # Number of insts issued each cycle
system.cpu0.iq.issued_per_cycle::overflows            0      0.00%    100.00% # Number of insts issued each cycle
system.cpu0.iq.issued_per_cycle::min_value            0                       # Number of insts issued each cycle
system.cpu0.iq.issued_per_cycle::max_value            8                       # Number of insts issued each cycle
system.cpu0.iq.issued_per_cycle::total        8201823                       # Number of insts issued each cycle
system.cpu0.iq.fu_full::No_OpClass                  0      0.00%      0.00% # attempts to use FU when none available
system.cpu0.iq.fu_full::IntAlu                  36967     35.13%     35.13% # attempts to use FU when none available
system.cpu0.iq.fu_full::IntMult                     0      0.00%     35.13% # attempts to use FU when none available
system.cpu0.iq.fu_full::IntDiv                      0      0.00%     35.13% # attempts to use FU when none available
system.cpu0.iq.fu_full::FloatAdd                    0      0.00%     35.13% # attempts to use FU when none available
system.cpu0.iq.fu_full::FloatCmp                    0      0.00%     35.13% # attempts to use FU when none available
system.cpu0.iq.fu_full::FloatCvt                   15      0.01%     35.15% # attempts to use FU when none available
system.cpu0.iq.fu_full::FloatMult                   0      0.00%     35.15% # attempts to use FU when none available
system.cpu0.iq.fu_full::FloatMultAcc                0      0.00%     35.15% # attempts to use FU when none available
system.cpu0.iq.fu_full::FloatDiv                    0      0.00%     35.15% # attempts to use FU when none available
system.cpu0.iq.fu_full::FloatMisc                   0      0.00%     35.15% # attempts to use FU when none available
system.cpu0.iq.fu_full::FloatSqrt                   0      0.00%     35.15% # attempts to use FU when none available
system.cpu0.iq.fu_full::SimdAdd                     0      0.00%     35.15% # attempts to use FU when none available
system.cpu0.iq.fu_full::SimdAddAcc                  0      0.00%     35.15% # attempts to use FU when none available
system.cpu0.iq.fu_full::SimdAlu                     0      0.00%     35.15% # attempts to use FU when none available
system.cpu0.iq.fu_full::SimdCmp                     0      0.00%     35.15% # attempts to use FU when none available
system.cpu0.iq.fu_full::SimdCvt                     0      0.00%     35.15% # attempts to use FU when none available
system.cpu0.iq.fu_full::SimdMisc                    0      0.00%     35.15% # attempts to use FU when none available
system.cpu0.iq.fu_full::SimdMult                    0      0.00%     35.15% # attempts to use FU when none available
system.cpu0.iq.fu_full::SimdMultAcc                 0      0.00%     35.15% # attempts to use FU when none available
system.cpu0.iq.fu_full::SimdShift                   0      0.00%     35.15% # attempts to use FU when none available
system.cpu0.iq.fu_full::SimdShiftAcc                0      0.00%     35.15% # attempts to use FU when none available
system.cpu0.iq.fu_full::SimdSqrt                    0      0.00%     35.15% # attempts to use FU when none available
system.cpu0.iq.fu_full::SimdFloatAdd                0      0.00%     35.15% # attempts to use FU when none available
system.cpu0.iq.fu_full::SimdFloatAlu                0      0.00%     35.15% # attempts to use FU when none available
system.cpu0.iq.fu_full::SimdFloatCmp                0      0.00%     35.15% # attempts to use FU when none available
system.cpu0.iq.fu_full::SimdFloatCvt                0      0.00%     35.15% # attempts to use FU when none available
system.cpu0.iq.fu_full::SimdFloatDiv                0      0.00%     35.15% # attempts to use FU when none available
system.cpu0.iq.fu_full::SimdFloatMisc               0      0.00%     35.15% # attempts to use FU when none available
system.cpu0.iq.fu_full::SimdFloatMult               0      0.00%     35.15% # attempts to use FU when none available
system.cpu0.iq.fu_full::SimdFloatMultAcc            0      0.00%     35.15% # attempts to use FU when none available
system.cpu0.iq.fu_full::SimdFloatSqrt               0      0.00%     35.15% # attempts to use FU when none available
system.cpu0.iq.fu_full::MemRead                 43334     41.19%     76.33% # attempts to use FU when none available
system.cpu0.iq.fu_full::MemWrite                24858     23.63%     99.96% # attempts to use FU when none available
system.cpu0.iq.fu_full::FloatMemRead               23      0.02%     99.98% # attempts to use FU when none available
system.cpu0.iq.fu_full::FloatMemWrite              19      0.02%    100.00% # attempts to use FU when none available
system.cpu0.iq.fu_full::IprAccess                   0      0.00%    100.00% # attempts to use FU when none available
system.cpu0.iq.fu_full::InstPrefetch                0      0.00%    100.00% # attempts to use FU when none available
system.cpu0.iq.FU_type_0::No_OpClass           191962      2.04%      2.04% # Type of FU issued
system.cpu0.iq.FU_type_0::IntAlu              7093586     75.24%     77.27% # Type of FU issued
system.cpu0.iq.FU_type_0::IntMult               16738      0.18%     77.45% # Type of FU issued
system.cpu0.iq.FU_type_0::IntDiv                21645      0.23%     77.68% # Type of FU issued
system.cpu0.iq.FU_type_0::FloatAdd                 40      0.00%     77.68% # Type of FU issued
system.cpu0.iq.FU_type_0::FloatCmp                  0      0.00%     77.68% # Type of FU issued
system.cpu0.iq.FU_type_0::FloatCvt                412      0.00%     77.68% # Type of FU issued
system.cpu0.iq.FU_type_0::FloatMult                 0      0.00%     77.68% # Type of FU issued
system.cpu0.iq.FU_type_0::FloatMultAcc              0      0.00%     77.68% # Type of FU issued
system.cpu0.iq.FU_type_0::FloatDiv                  0      0.00%     77.68% # Type of FU issued
system.cpu0.iq.FU_type_0::FloatMisc                 0      0.00%     77.68% # Type of FU issued
system.cpu0.iq.FU_type_0::FloatSqrt                 0      0.00%     77.68% # Type of FU issued
system.cpu0.iq.FU_type_0::SimdAdd                   0      0.00%     77.68% # Type of FU issued
system.cpu0.iq.FU_type_0::SimdAddAcc                0      0.00%     77.68% # Type of FU issued
system.cpu0.iq.FU_type_0::SimdAlu                   0      0.00%     77.68% # Type of FU issued
system.cpu0.iq.FU_type_0::SimdCmp                   0      0.00%     77.68% # Type of FU issued
system.cpu0.iq.FU_type_0::SimdCvt                   0      0.00%     77.68% # Type of FU issued
system.cpu0.iq.FU_type_0::SimdMisc                  0      0.00%     77.68% # Type of FU issued
system.cpu0.iq.FU_type_0::SimdMult                  0      0.00%     77.68% # Type of FU issued
system.cpu0.iq.FU_type_0::SimdMultAcc               0      0.00%     77.68% # Type of FU issued
system.cpu0.iq.FU_type_0::SimdShift                 0      0.00%     77.68% # Type of FU issued
system.cpu0.iq.FU_type_0::SimdShiftAcc              0      0.00%     77.68% # Type of FU issued
system.cpu0.iq.FU_type_0::SimdSqrt                  0      0.00%     77.68% # Type of FU issued
system.cpu0.iq.FU_type_0::SimdFloatAdd              0      0.00%     77.68% # Type of FU issued
system.cpu0.iq.FU_type_0::SimdFloatAlu              0      0.00%     77.68% # Type of FU issued
system.cpu0.iq.FU_type_0::SimdFloatCmp              0      0.00%     77.68% # Type of FU issued
system.cpu0.iq.FU_type_0::SimdFloatCvt              0      0.00%     77.68% # Type of FU issued
system.cpu0.iq.FU_type_0::SimdFloatDiv              0      0.00%     77.68% # Type of FU issued
system.cpu0.iq.FU_type_0::SimdFloatMisc             0      0.00%     77.68% # Type of FU issued
system.cpu0.iq.FU_type_0::SimdFloatMult             0      0.00%     77.68% # Type of FU issued
system.cpu0.iq.FU_type_0::SimdFloatMultAcc            0      0.00%     77.68% # Type of FU issued
system.cpu0.iq.FU_type_0::SimdFloatSqrt             0      0.00%     77.68% # Type of FU issued
system.cpu0.iq.FU_type_0::MemRead             1402497     14.88%     92.56% # Type of FU issued
system.cpu0.iq.FU_type_0::MemWrite             701271      7.44%    100.00% # Type of FU issued
system.cpu0.iq.FU_type_0::FloatMemRead            178      0.00%    100.00% # Type of FU issued
system.cpu0.iq.FU_type_0::FloatMemWrite           179      0.00%    100.00% # Type of FU issued
system.cpu0.iq.FU_type_0::IprAccess                 0      0.00%    100.00% # Type of FU issued
system.cpu0.iq.FU_type_0::InstPrefetch              0      0.00%    100.00% # Type of FU issued
system.cpu0.iq.FU_type_0::total               9428508                       # Type of FU issued
system.cpu0.iq.rate                          1.092185                       # Inst issue rate
system.cpu0.iq.fu_busy_cnt                     105216                       # FU busy when requested
system.cpu0.iq.fu_busy_rate                  0.011159                       # FU busy rate (busy events/executed inst)
system.cpu0.iq.int_inst_queue_reads          27190590                       # Number of integer instruction queue reads
system.cpu0.iq.int_inst_queue_writes         14522089                       # Number of integer instruction queue writes
system.cpu0.iq.int_inst_queue_wakeup_accesses      9028562                       # Number of integer instruction queue wakeup accesses
system.cpu0.iq.fp_inst_queue_reads               1722                       # Number of floating instruction queue reads
system.cpu0.iq.fp_inst_queue_writes              1236                       # Number of floating instruction queue writes
system.cpu0.iq.fp_inst_queue_wakeup_accesses          687                       # Number of floating instruction queue wakeup accesses
system.cpu0.iq.int_alu_accesses               9340896                       # Number of integer alu accesses
system.cpu0.iq.fp_alu_accesses                    866                       # Number of floating point alu accesses
system.cpu0.iew.lsq.thread0.forwLoads          105111                       # Number of loads that had data forwarded from stores
system.cpu0.iew.lsq.thread0.invAddrLoads            0                       # Number of loads ignored due to an invalid address
system.cpu0.iew.lsq.thread0.squashedLoads       560403                       # Number of loads squashed
system.cpu0.iew.lsq.thread0.ignoredResponses         1001                       # Number of memory responses ignored because the instruction is squashed
system.cpu0.iew.lsq.thread0.memOrderViolation         6928                       # Number of memory ordering violations
system.cpu0.iew.lsq.thread0.squashedStores       241662                       # Number of stores squashed
system.cpu0.iew.lsq.thread0.invAddrSwpfs            0                       # Number of software prefetches ignored due to an invalid address
system.cpu0.iew.lsq.thread0.blockedLoads            0                       # Number of blocked loads due to partial load-store forwarding
system.cpu0.iew.lsq.thread0.rescheduledLoads          193                       # Number of loads that were rescheduled
system.cpu0.iew.lsq.thread0.cacheBlocked         3083                       # Number of times an access to memory failed due to the cache being blocked
system.cpu0.iew.iewIdleCycles                       0                       # Number of cycles IEW is idle
system.cpu0.iew.iewSquashCycles                219467                       # Number of cycles IEW is squashing
system.cpu0.iew.iewBlockCycles                 796364                       # Number of cycles IEW is blocking
system.cpu0.iew.iewUnblockCycles                77725                       # Number of cycles IEW is unblocking
system.cpu0.iew.iewDispatchedInsts           10809937                       # Number of instructions dispatched to IQ
system.cpu0.iew.iewDispSquashedInsts           265279                       # Number of squashed instructions skipped by dispatch
system.cpu0.iew.iewDispLoadInsts              1586775                       # Number of dispatched load instructions
system.cpu0.iew.iewDispStoreInsts              820747                       # Number of dispatched store instructions
system.cpu0.iew.iewDispNonSpecInsts             76507                       # Number of dispatched non-speculative instructions
system.cpu0.iew.iewIQFullEvents                 11415                       # Number of times the IQ has become full, causing a stall
system.cpu0.iew.iewLSQFullEvents                61359                       # Number of times the LSQ has become full, causing a stall
system.cpu0.iew.memOrderViolationEvents          6928                       # Number of memory order violations
system.cpu0.iew.predictedTakenIncorrect         47813                       # Number of branches that were predicted taken incorrectly
system.cpu0.iew.predictedNotTakenIncorrect       200648                       # Number of branches that were predicted not taken incorrectly
system.cpu0.iew.branchMispredicts              248461                       # Number of branch mispredicts detected at execute
system.cpu0.iew.iewExecutedInsts              9193229                       # Number of executed instructions
system.cpu0.iew.iewExecLoadInsts              1331957                       # Number of load instructions executed
system.cpu0.iew.iewExecSquashedInsts           210284                       # Number of squashed instructions skipped in execute
system.cpu0.iew.exec_swp                            0                       # number of swp insts executed
system.cpu0.iew.exec_nop                            0                       # number of nop insts executed
system.cpu0.iew.exec_refs                     2012476                       # number of memory reference insts executed
system.cpu0.iew.exec_branches                  943712                       # Number of branches executed
system.cpu0.iew.exec_stores                    680519                       # Number of stores executed
system.cpu0.iew.exec_rate                    1.064931                       # Inst execution rate
system.cpu0.iew.wb_sent                       9061888                       # cumulative count of insts sent to commit
system.cpu0.iew.wb_count                      9029249                       # cumulative count of insts written-back
system.cpu0.iew.wb_producers                  6024317                       # num instructions producing a value
system.cpu0.iew.wb_consumers                  9916271                       # num instructions consuming a value
system.cpu0.iew.wb_rate                      1.045936                       # insts written-back per cycle
system.cpu0.iew.wb_fanout                    0.607518                       # average fanout of values written-back
system.cpu0.commit.commitSquashedInsts        3684848                       # The number of squashed insts skipped by commit
system.cpu0.commit.commitNonSpecStalls          88368                       # The number of times commit has been forced to stall to communicate backwards
system.cpu0.commit.branchMispredicts           210985                       # The number of times a branch was mispredicted
system.cpu0.commit.committed_per_cycle::samples      7567141                       # Number of insts commited each cycle
system.cpu0.commit.committed_per_cycle::mean     0.938655                       # Number of insts commited each cycle
system.cpu0.commit.committed_per_cycle::stdev     1.882452                       # Number of insts commited each cycle
system.cpu0.commit.committed_per_cycle::underflows            0      0.00%      0.00% # Number of insts commited each cycle
system.cpu0.commit.committed_per_cycle::0      5237025     69.21%     69.21% # Number of insts commited each cycle
system.cpu0.commit.committed_per_cycle::1       815692     10.78%     79.99% # Number of insts commited each cycle
system.cpu0.commit.committed_per_cycle::2       380058      5.02%     85.01% # Number of insts commited each cycle
system.cpu0.commit.committed_per_cycle::3       433233      5.73%     90.73% # Number of insts commited each cycle
system.cpu0.commit.committed_per_cycle::4       183708      2.43%     93.16% # Number of insts commited each cycle
system.cpu0.commit.committed_per_cycle::5        98747      1.30%     94.47% # Number of insts commited each cycle
system.cpu0.commit.committed_per_cycle::6       151168      2.00%     96.46% # Number of insts commited each cycle
system.cpu0.commit.committed_per_cycle::7        48227      0.64%     97.10% # Number of insts commited each cycle
system.cpu0.commit.committed_per_cycle::8       219283      2.90%    100.00% # Number of insts commited each cycle
system.cpu0.commit.committed_per_cycle::overflows            0      0.00%    100.00% # Number of insts commited each cycle
system.cpu0.commit.committed_per_cycle::min_value            0                       # Number of insts commited each cycle
system.cpu0.commit.committed_per_cycle::max_value            8                       # Number of insts commited each cycle
system.cpu0.commit.committed_per_cycle::total      7567141                       # Number of insts commited each cycle
system.cpu0.commit.committedInsts             3399688                       # Number of instructions committed
system.cpu0.commit.committedOps               7102935                       # Number of ops (including micro ops) committed
system.cpu0.commit.swp_count                        0                       # Number of s/w prefetches committed
system.cpu0.commit.refs                       1605449                       # Number of memory references committed
system.cpu0.commit.loads                      1026366                       # Number of loads committed
system.cpu0.commit.membars                      39007                       # Number of memory barriers committed
system.cpu0.commit.branches                    789009                       # Number of branches committed
system.cpu0.commit.fp_insts                       440                       # Number of committed floating point instructions.
system.cpu0.commit.int_insts                  6867493                       # Number of committed integer instructions.
system.cpu0.commit.function_calls               81464                       # Number of function calls committed.
system.cpu0.commit.op_class_0::No_OpClass       101965      1.44%      1.44% # Class of committed instruction
system.cpu0.commit.op_class_0::IntAlu         5358821     75.45%     76.88% # Class of committed instruction
system.cpu0.commit.op_class_0::IntMult          15405      0.22%     77.10% # Class of committed instruction
system.cpu0.commit.op_class_0::IntDiv           21175      0.30%     77.40% # Class of committed instruction
system.cpu0.commit.op_class_0::FloatAdd            40      0.00%     77.40% # Class of committed instruction
system.cpu0.commit.op_class_0::FloatCmp             0      0.00%     77.40% # Class of committed instruction
system.cpu0.commit.op_class_0::FloatCvt            80      0.00%     77.40% # Class of committed instruction
system.cpu0.commit.op_class_0::FloatMult            0      0.00%     77.40% # Class of committed instruction
system.cpu0.commit.op_class_0::FloatMultAcc            0      0.00%     77.40% # Class of committed instruction
system.cpu0.commit.op_class_0::FloatDiv             0      0.00%     77.40% # Class of committed instruction
system.cpu0.commit.op_class_0::FloatMisc            0      0.00%     77.40% # Class of committed instruction
system.cpu0.commit.op_class_0::FloatSqrt            0      0.00%     77.40% # Class of committed instruction
system.cpu0.commit.op_class_0::SimdAdd              0      0.00%     77.40% # Class of committed instruction
system.cpu0.commit.op_class_0::SimdAddAcc            0      0.00%     77.40% # Class of committed instruction
system.cpu0.commit.op_class_0::SimdAlu              0      0.00%     77.40% # Class of committed instruction
system.cpu0.commit.op_class_0::SimdCmp              0      0.00%     77.40% # Class of committed instruction
system.cpu0.commit.op_class_0::SimdCvt              0      0.00%     77.40% # Class of committed instruction
system.cpu0.commit.op_class_0::SimdMisc             0      0.00%     77.40% # Class of committed instruction
system.cpu0.commit.op_class_0::SimdMult             0      0.00%     77.40% # Class of committed instruction
system.cpu0.commit.op_class_0::SimdMultAcc            0      0.00%     77.40% # Class of committed instruction
system.cpu0.commit.op_class_0::SimdShift            0      0.00%     77.40% # Class of committed instruction
system.cpu0.commit.op_class_0::SimdShiftAcc            0      0.00%     77.40% # Class of committed instruction
system.cpu0.commit.op_class_0::SimdSqrt             0      0.00%     77.40% # Class of committed instruction
system.cpu0.commit.op_class_0::SimdFloatAdd            0      0.00%     77.40% # Class of committed instruction
system.cpu0.commit.op_class_0::SimdFloatAlu            0      0.00%     77.40% # Class of committed instruction
system.cpu0.commit.op_class_0::SimdFloatCmp            0      0.00%     77.40% # Class of committed instruction
system.cpu0.commit.op_class_0::SimdFloatCvt            0      0.00%     77.40% # Class of committed instruction
system.cpu0.commit.op_class_0::SimdFloatDiv            0      0.00%     77.40% # Class of committed instruction
system.cpu0.commit.op_class_0::SimdFloatMisc            0      0.00%     77.40% # Class of committed instruction
system.cpu0.commit.op_class_0::SimdFloatMult            0      0.00%     77.40% # Class of committed instruction
system.cpu0.commit.op_class_0::SimdFloatMultAcc            0      0.00%     77.40% # Class of committed instruction
system.cpu0.commit.op_class_0::SimdFloatSqrt            0      0.00%     77.40% # Class of committed instruction
system.cpu0.commit.op_class_0::MemRead        1026206     14.45%     91.85% # Class of committed instruction
system.cpu0.commit.op_class_0::MemWrite        578923      8.15%    100.00% # Class of committed instruction
system.cpu0.commit.op_class_0::FloatMemRead          160      0.00%    100.00% # Class of committed instruction
system.cpu0.commit.op_class_0::FloatMemWrite          160      0.00%    100.00% # Class of committed instruction
system.cpu0.commit.op_class_0::IprAccess            0      0.00%    100.00% # Class of committed instruction
system.cpu0.commit.op_class_0::InstPrefetch            0      0.00%    100.00% # Class of committed instruction
system.cpu0.commit.op_class_0::total          7102935                       # Class of committed instruction
system.cpu0.commit.bw_lim_events               219283                       # number cycles where commit BW limit reached
system.cpu0.rob.rob_reads                    18121256                       # The number of ROB reads
system.cpu0.rob.rob_writes                   22213297                       # The number of ROB writes
system.cpu0.timesIdled                          14600                       # Number of times that the entire CPU went into an idle state and unscheduled itself
system.cpu0.idleCycles                         430876                       # Total number of cycles that the CPU has spent unscheduled due to idling
system.cpu0.quiesceCycles                 11632076640                       # Total number of cycles that CPU has spent quiesced or waiting for an interrupt
system.cpu0.committedInsts                    3399688                       # Number of Instructions Simulated
system.cpu0.committedOps                      7102935                       # Number of Ops (including micro ops) Simulated
system.cpu0.cpi                              2.539262                       # CPI: Cycles Per Instruction
system.cpu0.cpi_total                        2.539262                       # CPI: Total CPI of All Threads
system.cpu0.ipc                              0.393815                       # IPC: Instructions Per Cycle
system.cpu0.ipc_total                        0.393815                       # IPC: Total IPC of All Threads
system.cpu0.int_regfile_reads                13242736                       # number of integer regfile reads
system.cpu0.int_regfile_writes                7223148                       # number of integer regfile writes
system.cpu0.fp_regfile_reads                      487                       # number of floating regfile reads
system.cpu0.fp_regfile_writes                     200                       # number of floating regfile writes
system.cpu0.cc_regfile_reads                  4935097                       # number of cc regfile reads
system.cpu0.cc_regfile_writes                 2511981                       # number of cc regfile writes
system.cpu0.misc_regfile_reads                4101939                       # number of misc regfile reads
system.cpu0.misc_regfile_writes                 35767                       # number of misc regfile writes
system.cpu0.dcache.tags.pwrStateResidencyTicks::UNDEFINED 11640709339000                       # Cumulative time (in ticks) in various power states
system.cpu0.dcache.tags.replacements            24992                       # number of replacements
system.cpu0.dcache.tags.tagsinuse          465.637516                       # Cycle average of tags in use
system.cpu0.dcache.tags.total_refs            1747273                       # Total number of references to valid blocks.
system.cpu0.dcache.tags.sampled_refs            25488                       # Sample count of references to valid blocks.
system.cpu0.dcache.tags.avg_refs            68.552770                       # Average number of references to valid blocks.
system.cpu0.dcache.tags.warmup_cycle     9109558066000                       # Cycle when the warmup percentage was hit.
system.cpu0.dcache.tags.occ_blocks::cpu0.data   465.637516                       # Average occupied blocks per requestor
system.cpu0.dcache.tags.occ_percent::cpu0.data     0.909448                       # Average percentage of cache occupancy
system.cpu0.dcache.tags.occ_percent::total     0.909448                       # Average percentage of cache occupancy
system.cpu0.dcache.tags.occ_task_id_blocks::1024          496                       # Occupied blocks per task id
system.cpu0.dcache.tags.age_task_id_blocks_1024::0            5                       # Occupied blocks per task id
system.cpu0.dcache.tags.age_task_id_blocks_1024::3            5                       # Occupied blocks per task id
system.cpu0.dcache.tags.age_task_id_blocks_1024::4          486                       # Occupied blocks per task id
system.cpu0.dcache.tags.occ_task_id_percent::1024     0.968750                       # Percentage of cache occupancy per task id
system.cpu0.dcache.tags.tag_accesses          3622256                       # Number of tag accesses
system.cpu0.dcache.tags.data_accesses         3622256                       # Number of data accesses
[...]
system.membus.pkt_size_system.iocache.mem_side::system.mem_ctrls.port        11264                       # Cumulative packet size per connected master and slave (bytes)
system.membus.pkt_size_system.iocache.mem_side::total        11264                       # Cumulative packet size per connected master and slave (bytes)
system.membus.pkt_size_system.l2.mem_side::system.bridge.slave         5002                       # Cumulative packet size per connected master and slave (bytes)
system.membus.pkt_size_system.l2.mem_side::system.cpu0.interrupts.pio         3104                       # Cumulative packet size per connected master and slave (bytes)
system.membus.pkt_size_system.l2.mem_side::system.cpu1.interrupts.pio         2988                       # Cumulative packet size per connected master and slave (bytes)
system.membus.pkt_size_system.l2.mem_side::system.mem_ctrls.port      2654912                       # Cumulative packet size per connected master and slave (bytes)
system.membus.pkt_size_system.l2.mem_side::total      2666006                       # Cumulative packet size per connected master and slave (bytes)
system.membus.pkt_size_system.cpu0.interrupts.int_master::system.cpu1.interrupts.int_slave           68                       # Cumulative packet size per connected master and slave (bytes)
system.membus.pkt_size_system.cpu0.interrupts.int_master::total           68                       # Cumulative packet size per connected master and slave (bytes)
system.membus.pkt_size_system.cpu1.interrupts.int_master::system.cpu0.interrupts.int_slave           12                       # Cumulative packet size per connected master and slave (bytes)
system.membus.pkt_size_system.cpu1.interrupts.int_master::total           12                       # Cumulative packet size per connected master and slave (bytes)
system.membus.pkt_size::total                 2677598                       # Cumulative packet size per connected master and slave (bytes)
system.membus.snoops                             1499                       # Total snoops (count)
system.membus.snoopTraffic                        192                       # Total snoop traffic (bytes)
system.membus.snoop_fanout::samples             44390                       # Request fanout histogram
system.membus.snoop_fanout::mean             0.000068                       # Request fanout histogram
system.membus.snoop_fanout::stdev            0.008221                       # Request fanout histogram
system.membus.snoop_fanout::underflows              0      0.00%      0.00% # Request fanout histogram
system.membus.snoop_fanout::0                   44387     99.99%     99.99% # Request fanout histogram
system.membus.snoop_fanout::1                       3      0.01%    100.00% # Request fanout histogram
system.membus.snoop_fanout::2                       0      0.00%    100.00% # Request fanout histogram
system.membus.snoop_fanout::overflows               0      0.00%    100.00% # Request fanout histogram
system.membus.snoop_fanout::min_value               0                       # Request fanout histogram
system.membus.snoop_fanout::max_value               1                       # Request fanout histogram
system.membus.snoop_fanout::total               44390                       # Request fanout histogram
system.membus.reqLayer0.occupancy            25062419                       # Layer occupancy (ticks)
system.membus.reqLayer0.utilization               0.0                       # Layer utilization (%)
system.membus.reqLayer1.occupancy             5798544                       # Layer occupancy (ticks)
system.membus.reqLayer1.utilization               0.0                       # Layer utilization (%)
system.membus.reqLayer2.occupancy              246828                       # Layer occupancy (ticks)
system.membus.reqLayer2.utilization               0.0                       # Layer utilization (%)
system.membus.reqLayer3.occupancy             5612546                       # Layer occupancy (ticks)
system.membus.reqLayer3.utilization               0.0                       # Layer utilization (%)
system.membus.reqLayer4.occupancy              344755                       # Layer occupancy (ticks)
system.membus.reqLayer4.utilization               0.0                       # Layer utilization (%)
system.membus.reqLayer5.occupancy           373934314                       # Layer occupancy (ticks)
system.membus.reqLayer5.utilization               0.0                       # Layer utilization (%)
system.membus.respLayer0.occupancy             283201                       # Layer occupancy (ticks)
system.membus.respLayer0.utilization              0.0                       # Layer utilization (%)
system.membus.respLayer2.occupancy              49708                       # Layer occupancy (ticks)
system.membus.respLayer2.utilization              0.0                       # Layer utilization (%)
system.membus.respLayer3.occupancy          570500282                       # Layer occupancy (ticks)
system.membus.respLayer3.utilization              0.0                       # Layer utilization (%)
system.membus.respLayer4.occupancy              94311                       # Layer occupancy (ticks)
system.membus.respLayer4.utilization              0.0                       # Layer utilization (%)
system.membus.respLayer5.occupancy              11060                       # Layer occupancy (ticks)
system.membus.respLayer5.utilization              0.0                       # Layer utilization (%)
system.membus.badaddr_responder.pwrStateResidencyTicks::UNDEFINED 11640709339000                       # Cumulative time (in ticks) in various power states
system.pc.behind_pci.pwrStateResidencyTicks::UNDEFINED 11640709339000                       # Cumulative time (in ticks) in various power states
system.pc.com_1.pwrStateResidencyTicks::UNDEFINED 11640709339000                       # Cumulative time (in ticks) in various power states
system.pc.fake_com_2.pwrStateResidencyTicks::UNDEFINED 11640709339000                       # Cumulative time (in ticks) in various power states
system.pc.fake_com_3.pwrStateResidencyTicks::UNDEFINED 11640709339000                       # Cumulative time (in ticks) in various power states
system.pc.fake_com_4.pwrStateResidencyTicks::UNDEFINED 11640709339000                       # Cumulative time (in ticks) in various power states
system.pc.fake_floppy.pwrStateResidencyTicks::UNDEFINED 11640709339000                       # Cumulative time (in ticks) in various power states
system.pc.i_dont_exist1.pwrStateResidencyTicks::UNDEFINED 11640709339000                       # Cumulative time (in ticks) in various power states
system.pc.i_dont_exist2.pwrStateResidencyTicks::UNDEFINED 11640709339000                       # Cumulative time (in ticks) in various power states
system.pc.pci_host.pwrStateResidencyTicks::UNDEFINED 11640709339000                       # Cumulative time (in ticks) in various power states
system.pc.south_bridge.cmos.pwrStateResidencyTicks::UNDEFINED 11640709339000                       # Cumulative time (in ticks) in various power states
system.pc.south_bridge.dma1.pwrStateResidencyTicks::UNDEFINED 11640709339000                       # Cumulative time (in ticks) in various power states
system.pc.south_bridge.pic2.pwrStateResidencyTicks::UNDEFINED 11640709339000                       # Cumulative time (in ticks) in various power states
system.pc.south_bridge.pic1.pwrStateResidencyTicks::UNDEFINED 11640709339000                       # Cumulative time (in ticks) in various power states
system.pc.south_bridge.io_apic.pwrStateResidencyTicks::UNDEFINED 11640709339000                       # Cumulative time (in ticks) in various power states
system.pc.south_bridge.keyboard.pwrStateResidencyTicks::UNDEFINED 11640709339000                       # Cumulative time (in ticks) in various power states
system.pc.south_bridge.pit.pwrStateResidencyTicks::UNDEFINED 11640709339000                       # Cumulative time (in ticks) in various power states
system.pc.south_bridge.speaker.pwrStateResidencyTicks::UNDEFINED 11640709339000                       # Cumulative time (in ticks) in various power states
system.pc.south_bridge.ide.disks0.dma_read_full_pages            0                       # Number of full page size DMA reads (not PRD).
system.pc.south_bridge.ide.disks0.dma_read_bytes            0                       # Number of bytes transfered via DMA reads (not PRD).
system.pc.south_bridge.ide.disks0.dma_read_txs            0                       # Number of DMA read transactions (not PRD).
system.pc.south_bridge.ide.disks0.dma_write_full_pages            3                       # Number of full page size DMA writes.
system.pc.south_bridge.ide.disks0.dma_write_bytes        12288                       # Number of bytes transfered via DMA writes.
system.pc.south_bridge.ide.disks0.dma_write_txs            3                       # Number of DMA write transactions.
system.pc.south_bridge.ide.disks1.dma_read_full_pages            0                       # Number of full page size DMA reads (not PRD).
system.pc.south_bridge.ide.disks1.dma_read_bytes            0                       # Number of bytes transfered via DMA reads (not PRD).
system.pc.south_bridge.ide.disks1.dma_read_txs            0                       # Number of DMA read transactions (not PRD).
system.pc.south_bridge.ide.disks1.dma_write_full_pages            0                       # Number of full page size DMA writes.
system.pc.south_bridge.ide.disks1.dma_write_bytes            0                       # Number of bytes transfered via DMA writes.
system.pc.south_bridge.ide.disks1.dma_write_txs            0                       # Number of DMA write transactions.
system.pc.south_bridge.ide.pwrStateResidencyTicks::UNDEFINED 11640709339000                       # Cumulative time (in ticks) in various power states
system.tol2bus.snoop_filter.tot_requests       459828                       # Total number of requests made to the snoop filter.
system.tol2bus.snoop_filter.hit_single_requests       214587                       # Number of requests hitting in the snoop filter with a single holder of the requested data.
system.tol2bus.snoop_filter.hit_multi_requests       111614                       # Number of requests hitting in the snoop filter with multiple (>1) holders of the requested data.
system.tol2bus.snoop_filter.tot_snoops           3092                       # Total number of snoops made to the snoop filter.
system.tol2bus.snoop_filter.hit_single_snoops         3033                       # Number of snoops hitting in the snoop filter with a single holder of the requested data.
system.tol2bus.snoop_filter.hit_multi_snoops           59                       # Number of snoops hitting in the snoop filter with multiple (>1) holders of the requested data.
system.tol2bus.pwrStateResidencyTicks::UNDEFINED 11640709339000                       # Cumulative time (in ticks) in various power states
system.tol2bus.trans_dist::ReadReq               3378                       # Transaction distribution
system.tol2bus.trans_dist::ReadResp            222385                       # Transaction distribution
system.tol2bus.trans_dist::WriteReq              2769                       # Transaction distribution
system.tol2bus.trans_dist::WriteResp             2769                       # Transaction distribution
system.tol2bus.trans_dist::WritebackDirty        37398                       # Transaction distribution
system.tol2bus.trans_dist::WritebackClean       128066                       # Transaction distribution
system.tol2bus.trans_dist::CleanEvict           78706                       # Transaction distribution
system.tol2bus.trans_dist::HardPFReq            11983                       # Transaction distribution
system.tol2bus.trans_dist::UpgradeReq           11914                       # Transaction distribution
system.tol2bus.trans_dist::UpgradeResp          11914                       # Transaction distribution
system.tol2bus.trans_dist::ReadExReq            12632                       # Transaction distribution
system.tol2bus.trans_dist::ReadExResp           12632                       # Transaction distribution
system.tol2bus.trans_dist::ReadCleanReq        129090                       # Transaction distribution
system.tol2bus.trans_dist::ReadSharedReq        89918                       # Transaction distribution
system.tol2bus.pkt_count_system.cpu0.icache.mem_side::system.l2.cpu_side       181573                       # Packet count per connected master and slave (bytes)
system.tol2bus.pkt_count_system.cpu0.dcache.mem_side::system.l2.cpu_side        98314                       # Packet count per connected master and slave (bytes)
system.tol2bus.pkt_count_system.cpu0.itb_walker_cache.mem_side::system.l2.cpu_side         2783                       # Packet count per connected master and slave (bytes)
system.tol2bus.pkt_count_system.cpu0.dtb_walker_cache.mem_side::system.l2.cpu_side        40715                       # Packet count per connected master and slave (bytes)
system.tol2bus.pkt_count_system.cpu1.icache.mem_side::system.l2.cpu_side       204673                       # Packet count per connected master and slave (bytes)
system.tol2bus.pkt_count_system.cpu1.dcache.mem_side::system.l2.cpu_side        78377                       # Packet count per connected master and slave (bytes)
system.tol2bus.pkt_count_system.cpu1.itb_walker_cache.mem_side::system.l2.cpu_side         3362                       # Packet count per connected master and slave (bytes)
system.tol2bus.pkt_count_system.cpu1.dtb_walker_cache.mem_side::system.l2.cpu_side        87568                       # Packet count per connected master and slave (bytes)
system.tol2bus.pkt_count::total                697365                       # Packet count per connected master and slave (bytes)
system.tol2bus.pkt_size_system.cpu0.icache.mem_side::system.l2.cpu_side      7736192                       # Cumulative packet size per connected master and slave (bytes)
system.tol2bus.pkt_size_system.cpu0.dcache.mem_side::system.l2.cpu_side      2501749                       # Cumulative packet size per connected master and slave (bytes)
system.tol2bus.pkt_size_system.cpu0.itb_walker_cache.mem_side::system.l2.cpu_side        59200                       # Cumulative packet size per connected master and slave (bytes)
system.tol2bus.pkt_size_system.cpu0.dtb_walker_cache.mem_side::system.l2.cpu_side       982016                       # Cumulative packet size per connected master and slave (bytes)
system.tol2bus.pkt_size_system.cpu1.icache.mem_side::system.l2.cpu_side      8721792                       # Cumulative packet size per connected master and slave (bytes)
system.tol2bus.pkt_size_system.cpu1.dcache.mem_side::system.l2.cpu_side      1810977                       # Cumulative packet size per connected master and slave (bytes)
system.tol2bus.pkt_size_system.cpu1.itb_walker_cache.mem_side::system.l2.cpu_side        69632                       # Cumulative packet size per connected master and slave (bytes)
system.tol2bus.pkt_size_system.cpu1.dtb_walker_cache.mem_side::system.l2.cpu_side      2006400                       # Cumulative packet size per connected master and slave (bytes)
system.tol2bus.pkt_size::total               23887958                       # Cumulative packet size per connected master and slave (bytes)
system.tol2bus.snoops                           58192                       # Total snoops (count)
system.tol2bus.snoopTraffic                   1537920                       # Total snoop traffic (bytes)
system.tol2bus.snoop_fanout::samples           289581                       # Request fanout histogram
system.tol2bus.snoop_fanout::mean            0.457326                       # Request fanout histogram
system.tol2bus.snoop_fanout::stdev           0.644286                       # Request fanout histogram
system.tol2bus.snoop_fanout::underflows             0      0.00%      0.00% # Request fanout histogram
system.tol2bus.snoop_fanout::0                 176885     61.08%     61.08% # Request fanout histogram
system.tol2bus.snoop_fanout::1                  97298     33.60%     94.68% # Request fanout histogram
system.tol2bus.snoop_fanout::2                  11152      3.85%     98.53% # Request fanout histogram
system.tol2bus.snoop_fanout::3                   4153      1.43%     99.97% # Request fanout histogram
system.tol2bus.snoop_fanout::4                     93      0.03%    100.00% # Request fanout histogram
system.tol2bus.snoop_fanout::5                      0      0.00%    100.00% # Request fanout histogram
system.tol2bus.snoop_fanout::6                      0      0.00%    100.00% # Request fanout histogram
system.tol2bus.snoop_fanout::7                      0      0.00%    100.00% # Request fanout histogram
system.tol2bus.snoop_fanout::8                      0      0.00%    100.00% # Request fanout histogram
system.tol2bus.snoop_fanout::overflows              0      0.00%    100.00% # Request fanout histogram
system.tol2bus.snoop_fanout::min_value              0                       # Request fanout histogram
system.tol2bus.snoop_fanout::max_value              4                       # Request fanout histogram
system.tol2bus.snoop_fanout::total             289581                       # Request fanout histogram
system.tol2bus.reqLayer0.occupancy          785413155                       # Layer occupancy (ticks)
system.tol2bus.reqLayer0.utilization              0.0                       # Layer utilization (%)
system.tol2bus.snoopLayer0.occupancy            10250                       # Layer occupancy (ticks)
system.tol2bus.snoopLayer0.utilization            0.0                       # Layer utilization (%)
system.tol2bus.respLayer0.occupancy         182412653                       # Layer occupancy (ticks)
system.tol2bus.respLayer0.utilization             0.0                       # Layer utilization (%)
system.tol2bus.respLayer1.occupancy         104171440                       # Layer occupancy (ticks)
system.tol2bus.respLayer1.utilization             0.0                       # Layer utilization (%)
system.tol2bus.respLayer2.occupancy           2992992                       # Layer occupancy (ticks)
system.tol2bus.respLayer2.utilization             0.0                       # Layer utilization (%)
system.tol2bus.respLayer3.occupancy          41959906                       # Layer occupancy (ticks)
system.tol2bus.respLayer3.utilization             0.0                       # Layer utilization (%)
system.tol2bus.respLayer4.occupancy         205620554                       # Layer occupancy (ticks)
system.tol2bus.respLayer4.utilization             0.0                       # Layer utilization (%)
system.tol2bus.respLayer5.occupancy          90286246                       # Layer occupancy (ticks)
system.tol2bus.respLayer5.utilization             0.0                       # Layer utilization (%)
system.tol2bus.respLayer6.occupancy           3624993                       # Layer occupancy (ticks)
system.tol2bus.respLayer6.utilization             0.0                       # Layer utilization (%)
system.tol2bus.respLayer7.occupancy          90414565                       # Layer occupancy (ticks)
system.tol2bus.respLayer7.utilization             0.0                       # Layer utilization (%)
system.cpu0.kern.inst.arm                           0                       # number of arm instructions executed
system.cpu0.kern.inst.quiesce                       0                       # number of quiesce instructions executed
system.cpu1.kern.inst.arm                           0                       # number of arm instructions executed
system.cpu1.kern.inst.quiesce                       0                       # number of quiesce instructions executed

---------- End Simulation Statistics   ----------
